LTspice 24.0.12 for Windows
Circuit: * C:\Users\TCFH2003\Documents\!!PCB_Projects\Proiect1\hysteresis_comparator.asc
Start Time: Sat Oct 12 04:12:31 2024
Warning: Multiple definitions of model "2scr375p" Type: BJT
Warning: Multiple definitions of model "bc857b" Type: BJT
Warning: Multiple definitions of model "bc847c" Type: BJT
Warning: Multiple definitions of model "bc847b" Type: BJT
Error on line 1 : .model bs250p vdmos pchan rg=160 vto=-3.193 rs=2.041 rd=0.697 is=2e-13 kp=0.277 cjo=105p pb=1 lambda=1.2e-2 rb=0.309 rds=1.2e8 cgdmax=57p cgdmin=5p cgs=47p tt=86.56n bv=45 ibv=10u
	* Unrecognized parameter "pb" -- ignored
solver = Normal
Maximum thread count: 20
tnom = 27
temp = 27
method = modified trap
Direct Newton iteration failed to find .op point.  (Use ".option noopiter" to skip.)
Starting Gmin stepping
Gmin = 10
Gmin = 1.07374
vernier = 0.5
vernier = 0.25
vernier = 0.125
vernier = 0.0625
Gmin = 1.04056
vernier = 0.03125
vernier = 0.015625
vernier = 0.0078125
Gmin = 1.01851
vernier = 0.00390625
vernier = 0.00520833
Gmin = 1.00829
vernier = 0.00260417
vernier = 0.00130208
Gmin = 1.00665
vernier = 0.00173611
vernier = 0.000868055
vernier = 0.00115741
vernier = 0.000578703
Gmin = 1.00527
vernier = 0.000771604
vernier = 0.000578703
Gmin = 1.00406
vernier = 0.000434027
vernier = 0.000578703
Gmin = 1.00308
vernier = 0.000434027
Gmin = 0
Gmin stepping failed

Starting source stepping with srcstepmethod=0
Source Step = 3.0303%
Source Step = 15.1545%
Starting source stepping with srcstepmethod=1
Source Step = 3.0303%
Source Step = 33.3333%
Source Step = 63.6364%
Source Step = 93.9394%
Source Step = 100%
Source Step = 100%
Source Step = 100%
Source Step = 100%
Source stepping succeeded in finding the operating point.

Total elapsed time: 0.238 seconds.

