LTspice 24.0.12 for Windows
Circuit: * C:\Users\TCFH2003\Documents\!!PCB_Projects\Proiect1\Proiect1_v3.asc
Start Time: Sat Oct 12 03:08:43 2024
Warning: Multiple definitions of model "2scr375p" Type: BJT
Warning: Multiple definitions of model "bc857b" Type: BJT
Warning: Multiple definitions of model "bc847c" Type: BJT
Warning: Multiple definitions of model "bc847b" Type: BJT
solver = Normal
Maximum thread count: 20
tnom = 27
temp = 27
method = modified trap
Per .tran options, skipping operating point for transient analysis.
Total elapsed time: 0.211 seconds.

