LTspice 24.0.12 for Windows
Circuit: * C:\Users\TCFH2003\Documents\!!PCB_Projects\Proiect1\SPICE_simulations\Proiect1_v5.asc
Start Time: Sat Dec 14 00:50:01 2024
Warning: Multiple definitions of model "2scr375p" Type: BJT
Warning: Multiple definitions of model "bc857b" Type: BJT
Warning: Multiple definitions of model "bc847c" Type: BJT
Warning: Multiple definitions of model "bc847b" Type: BJT
solver = Normal
Maximum thread count: 20



Per .tran options, skipping operating point for transient analysis.
.step temp=0°C



.step temp=25°C



.step temp=50°C
tnom = 27
temp = 70
method = modified trap
.step temp=70°C
Total elapsed time: 0.317 seconds.

