LTspice 24.0.12 for Windows
Circuit: * C:\Users\TCFH2003\Documents\!!PCB_Projects\Proiect1\SPICE_simulations\Proiect1_v5.asc
Start Time: Tue Oct 29 23:18:09 2024
Warning: Multiple definitions of model "2scr375p" Type: BJT
Warning: Multiple definitions of model "bc857b" Type: BJT
Warning: Multiple definitions of model "bc847c" Type: BJT
Warning: Multiple definitions of model "bc847b" Type: BJT
solver = Normal
Maximum thread count: 20
tnom = 27
temp = 27
method = modified trap
Per .tran options, skipping operating point for transient analysis.
Changing Tseed to 4.88281e-10
Changing Tseed to 4.88281e-12
Total elapsed time: 0.115 seconds.

