LTspice 24.0.12 for Windows
Circuit: * C:\Users\Theo\Documents\!!PCB_Projects\Proiect_CEF2\SPICE_simulations\Proiect1_v5.asc
Start Time: Tue Nov 12 11:50:21 2024
Warning: Multiple definitions of model "2scr375p" Type: BJT
Warning: Multiple definitions of model "bc857b" Type: BJT
Warning: Multiple definitions of model "bc847c" Type: BJT
Warning: Multiple definitions of model "bc847b" Type: BJT
solver = Normal
Maximum thread count: 8
tnom = 27
temp = 27
method = modified trap
Per .tran options, skipping operating point for transient analysis.
Total elapsed time: 0.433 seconds.

