LTspice 24.0.12 for Windows
Circuit: * C:\Users\TCFH2003\Documents\!!PCB_Projects\Proiect1\simple_opamp.asc
Start Time: Fri Oct 18 17:21:24 2024
Error on line 1 : .model bs250p vdmos pchan rg=160 vto=-3.193 rs=2.041 rd=0.697 is=2e-13 kp=0.277 cjo=105p pb=1 lambda=1.2e-2 rb=0.309 rds=1.2e8 cgdmax=57p cgdmin=5p cgs=47p tt=86.56n bv=45 ibv=10u
	* Unrecognized parameter "pb" -- ignored
solver = Normal
Maximum thread count: 20
tnom = 27
temp = 27
method = modified trap
Direct Newton iteration failed to find .op point.  (Use ".option noopiter" to skip.)
Starting Gmin stepping
Gmin = 10
Gmin = 1.07374
Gmin = 0.115292
Gmin = 0.0123794
Gmin = 0.00132923
Gmin = 0.000142725
Gmin = 1.5325e-05
Gmin = 1.6455e-06
Gmin = 1.76685e-07
Gmin = 1.89714e-08
Gmin = 2.03704e-09
Gmin = 2.18725e-10
Gmin = 2.34854e-11
Gmin = 2.52173e-12
Gmin = 2.70769e-13
Gmin = 0
Gmin stepping succeeded in finding the operating point.

Total elapsed time: 0.038 seconds.

